<?xml version="1.0" encoding="UTF-8"?>

<!-- generated on 2022-04-10 21:44:56 by Eclipse SUMO netconvert Version 1.12.0
<configuration xmlns:xsi="http://www.w3.org/2001/XMLSchema-instance" xsi:noNamespaceSchemaLocation="http://sumo.dlr.de/xsd/netconvertConfiguration.xsd">

    <input>
        <type-files value="C:\Program%20Files%20(x86)\Eclipse\Sumo\data\typemap\osmNetconvert.typ.xml"/>
        <osm-files value="osm_bbox.osm.xml"/>
    </input>

    <output>
        <output-file value="osm.net.xml"/>
        <output.street-names value="true"/>
        <output.original-names value="true"/>
        <ptstop-output value="osm_stops.add.xml"/>
        <ptline-output value="osm_ptlines.xml"/>
    </output>

    <projection>
        <proj.utm value="true"/>
    </projection>

    <processing>
        <geometry.remove value="true"/>
        <roundabouts.guess value="true"/>
    </processing>

    <tls_building>
        <tls.discard-simple value="true"/>
        <tls.join value="true"/>
        <tls.guess-signals value="true"/>
        <tls.default-type value="actuated"/>
    </tls_building>

    <ramp_guessing>
        <ramps.guess value="true"/>
    </ramp_guessing>

    <junctions>
        <junctions.join value="true"/>
        <junctions.corner-detail value="5"/>
    </junctions>

    <railway>
        <railway.topology.repair value="true"/>
        <railway.topology.repair.stop-turn value="true"/>
    </railway>

    <report>
        <verbose value="true"/>
        <aggregate-warnings value="5"/>
    </report>

</configuration>
-->

<additional xmlns:xsi="http://www.w3.org/2001/XMLSchema-instance" xsi:noNamespaceSchemaLocation="http://sumo.dlr.de/xsd/additional_file.xsd">
    <busStop id="-3327052786" name="钱江路" lane="-971869576_0" startPos="4962.24" endPos="5105.01" friendlyPos="true">
        <access lane="154262322#1_0" pos="526.63" length="98.89" friendlyPos="1"/>
        <access lane="326085079_0" pos="274.36" length="83.31" friendlyPos="1"/>
        <access lane="329618112#0_0" pos="12.33" length="81.18" friendlyPos="1"/>
        <access lane="329618115_0" pos="0.00" length="100.71" friendlyPos="1"/>
        <access lane="330460399#1_0" pos="149.33" length="57.91" friendlyPos="1"/>
    </busStop>
    <busStop id="-5491465618" name="香榭商务大厦" lane="-24647852#2_0" startPos="33.19" endPos="48.19" friendlyPos="true" lines="3 K155 92"/>
    <busStop id="-5491465619" name="香榭商务大厦" lane="-24647852#1_0" startPos="23.85" endPos="38.85" friendlyPos="true" lines="3 K155 92"/>
    <busStop id="-5498653450" name="城站火车站" lane="-29980552_0" startPos="72.57" endPos="87.57" friendlyPos="true" lines="K155"/>
    <busStop id="-5498653453" name="城站火车站" lane="-11749406#1_0" startPos="70.17" endPos="85.17" friendlyPos="true" lines="1002"/>
    <busStop id="-5561274227" name="观音塘" lane="-593992378#4_0" startPos="45.09" endPos="60.09" friendlyPos="true"/>
    <busStop id="-5665359113" name="观音塘小区" lane="-587820067#2_0" startPos="93.21" endPos="108.21" friendlyPos="true"/>
    <busStop id="-5665359114" name="观音塘小区" lane="-587820067#2_0" startPos="119.21" endPos="134.21" friendlyPos="true"/>
    <busStop id="-6089140183" name="钱江路" lane="-795265323#0_0" startPos="54.54" endPos="254.54" friendlyPos="true">
        <access lane="154262322#1_0" pos="527.68" length="71.49" friendlyPos="1"/>
        <access lane="326085079_0" pos="274.36" length="56.49" friendlyPos="1"/>
        <access lane="329618112#0_0" pos="11.38" length="53.78" friendlyPos="1"/>
        <access lane="329618115_0" pos="0.00" length="73.60" friendlyPos="1"/>
        <access lane="330460399#1_0" pos="147.98" length="30.54" friendlyPos="1"/>
    </busStop>
    <busStop id="-6089151291" name="钱江路" lane="-648612290#1_0" startPos="0.00" endPos="173.21" friendlyPos="true">
        <access lane="154262322#1_0" pos="526.21" length="112.90" friendlyPos="1"/>
        <access lane="326085079_0" pos="274.36" length="97.12" friendlyPos="1"/>
        <access lane="329618112#0_0" pos="12.70" length="95.19" friendlyPos="1"/>
        <access lane="330460399#1_0" pos="149.91" length="71.90" friendlyPos="1"/>
        <access lane="330460399#2_0" pos="0.00" length="109.85" friendlyPos="1"/>
    </busStop>
    <busStop id="-6089151325" name="庆菱路" lane="-971869575#0_0" startPos="1308.59" endPos="1508.59" friendlyPos="true">
        <access lane="-519348624_0" pos="313.23" length="23.55" friendlyPos="1"/>
        <access lane="519348624_0" pos="0.00" length="27.65" friendlyPos="1"/>
        <access lane="553678636#1_0" pos="101.02" length="33.34" friendlyPos="1"/>
        <access lane="553678636#2_0" pos="7.79" length="1.76" friendlyPos="1"/>
        <access lane="572777359#1_0" pos="89.94" length="23.40" friendlyPos="1"/>
    </busStop>
    <busStop id="-6089151376" name="城星路" lane="-795265327#0_0" startPos="645.35" endPos="845.35" friendlyPos="true">
        <access lane="-581132506#0_0" pos="21.84" length="125.49" friendlyPos="1"/>
        <access lane="4880748#1_0" pos="80.40" length="3.52" friendlyPos="1"/>
        <access lane="581132506#0_0" pos="0.00" length="120.69" friendlyPos="1"/>
        <access lane="587820064#3_0" pos="107.36" length="21.26" friendlyPos="1"/>
        <access lane="812707070#2_0" pos="120.82" length="50.07" friendlyPos="1"/>
    </busStop>
    <busStop id="-6098961179" name="凤起路" lane="-795843981#3_0" startPos="844.88" endPos="1044.88" friendlyPos="true"/>
    <busStop id="-6503404528" name="城站" lane="-795843981#3_0" startPos="4262.25" endPos="4452.74" friendlyPos="true">
        <access lane="328906104#1_0" pos="155.41" length="15.03" friendlyPos="1"/>
        <access lane="4362901_0" pos="0.00" length="21.42" friendlyPos="1"/>
        <access lane="4362905#5_0" pos="119.73" length="8.92" friendlyPos="1"/>
        <access lane="972181383_0" pos="0.00" length="28.88" friendlyPos="1"/>
        <access lane="972181387_0" pos="14.34" length="18.53" friendlyPos="1"/>
    </busStop>
    <busStop id="-6503404540" name="定安路" lane="-795843981#3_0" startPos="2994.24" endPos="3194.24" friendlyPos="true"/>
    <busStop id="-6503404553" name="龙翔桥" lane="-795843981#3_0" startPos="1772.32" endPos="1972.32" friendlyPos="true"/>
    <busStop id="-6505799758" name="婺江路" lane="-795843981#2_0" startPos="1115.95" endPos="1276.47" friendlyPos="true">
        <access lane="982138089_0" pos="124.52" length="6.11" friendlyPos="1"/>
        <access lane="982138098#0_0" pos="36.66" length="0.27" friendlyPos="1"/>
        <access lane="982138101#0_0" pos="19.06" length="7.88" friendlyPos="1"/>
        <access lane="982138101#1_0" pos="0.00" length="8.45" friendlyPos="1"/>
        <access lane="982138109_0" pos="0.20" length="10.98" friendlyPos="1"/>
    </busStop>
    <busStop id="-7383609293" name="中河北路" lane="-971869576_0" startPos="623.39" endPos="823.39" friendlyPos="true"/>
    <busStop id="-7438242092" name="近江" lane="-795265327#0_0" startPos="1940.65" endPos="2140.65" friendlyPos="true">
        <access lane="864098260#0_0" pos="21.73" length="19.23" friendlyPos="1"/>
        <access lane="864098260#1_0" pos="0.00" length="56.15" friendlyPos="1"/>
    </busStop>
    <busStop id="-7438242104" name="江锦路" lane="-795265327#2_0" startPos="164.51" endPos="364.51" friendlyPos="true">
        <access lane="-612335383_0" pos="67.21" length="133.15" friendlyPos="1"/>
        <access lane="1035965887#2_0" pos="81.45" length="46.28" friendlyPos="1"/>
        <access lane="336821424#19_0" pos="80.95" length="28.70" friendlyPos="1"/>
        <access lane="336821424#5_0" pos="98.10" length="6.72" friendlyPos="1"/>
        <access lane="612335383_0" pos="169.47" length="128.10" friendlyPos="1"/>
    </busStop>
    <busStop id="-7440261452" name="中河北路" lane="-971869575#0_0" startPos="3671.81" endPos="3871.81" friendlyPos="true"/>
    <busStop id="-7440261453" name="建国北路" lane="-971869576_0" startPos="1506.41" endPos="1706.41" friendlyPos="true">
        <access lane="-22719396#0_0" pos="555.29" length="301.53" friendlyPos="1"/>
        <access lane="22719396#0_0" pos="0.00" length="296.79" friendlyPos="1"/>
        <access lane="4327940#2_0" pos="705.21" length="107.92" friendlyPos="1"/>
        <access lane="595989818#0_0" pos="1121.93" length="128.24" friendlyPos="1"/>
    </busStop>
    <busStop id="-7442098343" name="城站" lane="801051195_0" startPos="3212.30" endPos="3412.30" friendlyPos="true">
        <access lane="328906104#0_0" pos="0.00" length="20.60" friendlyPos="1"/>
        <access lane="4362905#5_0" pos="124.75" length="33.12" friendlyPos="1"/>
        <access lane="504559382#2_0" pos="59.74" length="34.55" friendlyPos="1"/>
        <access lane="972181383_0" pos="0.00" length="21.36" friendlyPos="1"/>
        <access lane="972181387_0" pos="13.76" length="13.08" friendlyPos="1"/>
    </busStop>
    <busStop id="-7442098346" name="城站" lane="-795651930#0_0" startPos="611.05" endPos="811.05" friendlyPos="true">
        <access lane="328906104#1_0" pos="154.22" length="32.85" friendlyPos="1"/>
        <access lane="4362905#5_0" pos="117.88" length="26.96" friendlyPos="1"/>
        <access lane="972181384_0" pos="0.00" length="34.60" friendlyPos="1"/>
        <access lane="972181386_0" pos="23.44" length="36.23" friendlyPos="1"/>
        <access lane="972181387_0" pos="21.93" length="4.48" friendlyPos="1"/>
    </busStop>
    <busStop id="-7443754797" name="建国北路" lane="-971869575#0_0" startPos="2790.63" endPos="2990.63" friendlyPos="true">
        <access lane="-22719396#0_0" pos="555.29" length="300.28" friendlyPos="1"/>
        <access lane="22719396#0_0" pos="0.00" length="295.49" friendlyPos="1"/>
        <access lane="4327940#2_0" pos="689.90" length="106.59" friendlyPos="1"/>
        <access lane="595989818#0_0" pos="1128.55" length="128.28" friendlyPos="1"/>
    </busStop>
    <busStop id="-7443754819" name="甬江路" lane="-795265327#0_0" startPos="3041.46" endPos="3241.46" friendlyPos="true"/>
    <busStop id="-7443754831" name="南星桥" lane="-795265327#0_0" startPos="4426.71" endPos="4626.71" friendlyPos="true"/>
    <busStop id="-7443754834" name="市民中心" lane="-795265327#0_0" startPos="0.00" endPos="168.95" friendlyPos="true">
        <access lane="587820062_0" pos="97.35" length="31.02" friendlyPos="1"/>
        <access lane="984657046#1_0" pos="28.35" length="25.35" friendlyPos="1"/>
        <access lane="984657052#4_0" pos="66.50" length="2.56" friendlyPos="1"/>
        <access lane="984657052#5_0" pos="0.00" length="33.64" friendlyPos="1"/>
        <access lane="984657053_0" pos="0.00" length="37.21" friendlyPos="1"/>
    </busStop>
    <busStop id="-7443754844" name="复兴路" lane="-795265327#0_0" startPos="6027.87" endPos="6227.87" friendlyPos="true"/>
    <busStop id="-7450812815" name="庆菱路" lane="-971869576_0" startPos="2988.04" endPos="3188.04" friendlyPos="true">
        <access lane="-519348624_0" pos="313.23" length="43.51" friendlyPos="1"/>
        <access lane="519348624_0" pos="0.00" length="45.43" friendlyPos="1"/>
        <access lane="553678636#1_0" pos="101.02" length="43.73" friendlyPos="1"/>
        <access lane="553678636#2_0" pos="7.21" length="29.52" friendlyPos="1"/>
        <access lane="572777359#1_0" pos="90.49" length="4.35" friendlyPos="1"/>
    </busStop>
    <busStop id="-7450812816" name="庆春广场" lane="-971869576_0" startPos="4097.75" endPos="4297.75" friendlyPos="true">
        <access lane="-11749472#2_0" pos="0.00" length="36.22" friendlyPos="1"/>
        <access lane="11749472#2_0" pos="103.14" length="40.57" friendlyPos="1"/>
        <access lane="621508194_0" pos="125.72" length="7.51" friendlyPos="1"/>
        <access lane="818256534#2_0" pos="124.43" length="2.82" friendlyPos="1"/>
        <access lane="818256541#2_0" pos="15.62" length="35.81" friendlyPos="1"/>
    </busStop>
    <busStop id="-7450812817" name="庆春广场" lane="-971869575#0_0" startPos="199.00" endPos="399.00" friendlyPos="true">
        <access lane="-11749472#5_0" pos="218.00" length="36.07" friendlyPos="1"/>
        <access lane="11749472#5_0" pos="0.00" length="40.41" friendlyPos="1"/>
        <access lane="621508194_0" pos="125.55" length="35.37" friendlyPos="1"/>
        <access lane="818256534#2_0" pos="124.38" length="25.03" friendlyPos="1"/>
        <access lane="818256541#2_0" pos="15.84" length="7.96" friendlyPos="1"/>
    </busStop>
    <busStop id="-7450812822" name="钱江世纪城" lane="-648612290#6_0" startPos="14426.09" endPos="14626.09" friendlyPos="true">
        <access lane="154262322#0_0" pos="82.55" length="107.84" friendlyPos="1"/>
        <access lane="329618112#1_0" pos="2810.55" length="87.41" friendlyPos="1"/>
    </busStop>
    <busStop id="-7450812832" name="盈丰路" lane="-648612290#6_0" startPos="13482.21" endPos="13682.21" friendlyPos="true"/>
    <busStop id="-7450812838" name="飞虹路" lane="-648612290#6_0" startPos="12228.92" endPos="12428.92" friendlyPos="true"/>
    <busStop id="-7450812852" name="振宁路" lane="-648612290#6_0" startPos="10680.64" endPos="10880.64" friendlyPos="true"/>
    <busStop id="-7450812861" name="建设三路" lane="-648612290#6_0" startPos="9085.42" endPos="9285.42" friendlyPos="true"/>
    <busStop id="-7450812863" name="建设一路" lane="-648612290#6_0" startPos="7917.92" endPos="8117.92" friendlyPos="true"/>
    <busStop id="-7450812872" name="人民广场" lane="-648612290#6_0" startPos="6434.40" endPos="6634.40" friendlyPos="true"/>
    <busStop id="-7450814391" name="杭发厂" lane="-648612290#6_0" startPos="5288.75" endPos="5488.75" friendlyPos="true"/>
    <busStop id="-7450814395" name="人民路" lane="-648612290#6_0" startPos="3989.76" endPos="4189.76" friendlyPos="true"/>
    <busStop id="-7450814401" name="潘水" lane="-648612290#6_0" startPos="2829.04" endPos="3029.04" friendlyPos="true"/>
    <busStop id="-7450814407" name="曹家桥" lane="-648612290#6_0" startPos="1247.38" endPos="1447.38" friendlyPos="true"/>
    <busStop id="-7450814414" name="朝阳" lane="-648612290#6_0" startPos="0.00" endPos="100.00" friendlyPos="true"/>
    <busStop id="-7491972881" name="水澄桥" lane="-795265327#0_0" startPos="7369.36" endPos="7569.36" friendlyPos="true"/>
    <busStop id="-7492010096" name="联庄" lane="-795265327#0_0" startPos="9603.20" endPos="9803.20" friendlyPos="true"/>
    <busStop id="-7492697330" name="江城路" lane="-795651930#0_0" startPos="1385.06" endPos="1585.06" friendlyPos="true">
        <access lane="1024485838_0" pos="27.08" length="25.36" friendlyPos="1"/>
        <access lane="513971947#1_0" pos="153.34" length="45.15" friendlyPos="1"/>
        <access lane="513971947#2_0" pos="0.20" length="39.41" friendlyPos="1"/>
        <access lane="513971947#3_0" pos="0.00" length="39.06" friendlyPos="1"/>
        <access lane="691943459#5_0" pos="50.76" length="22.85" friendlyPos="1"/>
    </busStop>
    <busStop id="-7492697332" name="江城路" lane="-795843975#0_0" startPos="1377.63" endPos="1577.63" friendlyPos="true">
        <access lane="328907501#0_0" pos="0.00" length="23.75" friendlyPos="1"/>
        <access lane="513971947#2_0" pos="0.20" length="13.10" friendlyPos="1"/>
        <access lane="513971947#3_0" pos="0.00" length="13.98" friendlyPos="1"/>
        <access lane="581139446#2_0" pos="56.43" length="19.72" friendlyPos="1"/>
        <access lane="691943459#5_0" pos="51.67" length="4.67" friendlyPos="1"/>
    </busStop>
    <busStop id="-7492697344" name="候潮门" lane="-795843975#0_0" startPos="2824.66" endPos="3024.66" friendlyPos="true">
        <access lane="513971947#4_0" pos="1269.34" length="128.36" friendlyPos="1"/>
    </busStop>
    <busStop id="-7492697350" name="候潮门" lane="-795651930#0_0" startPos="2821.15" endPos="3021.15" friendlyPos="true">
        <access lane="513971947#4_0" pos="1269.34" length="130.74" friendlyPos="1"/>
    </busStop>
    <busStop id="-7595414252" lane="-779842476#2_0" startPos="250.88" endPos="450.88" friendlyPos="true">
        <access lane="-572777364#8_0" pos="377.07" length="181.12" friendlyPos="1"/>
        <access lane="518484702_0" pos="955.76" length="129.26" friendlyPos="1"/>
        <access lane="572777364#3_0" pos="216.25" length="184.22" friendlyPos="1"/>
        <access lane="572777364#5_0" pos="30.46" length="176.32" friendlyPos="1"/>
        <access lane="972181392_0" pos="0.00" length="130.71" friendlyPos="1"/>
    </busStop>
    <busStop id="-7641860314" name="邵逸夫医院庆春院区" lane="-818256542_0" startPos="0.00" endPos="3.93" friendlyPos="true" lines="298"/>
    <busStop id="-8983302932" name="景芳" lane="-795265323#0_0" startPos="1448.22" endPos="1648.22" friendlyPos="true"/>
    <busStop id="-8997807032" name="万安桥" lane="-795651930#4_0" startPos="893.68" endPos="1056.13" friendlyPos="true">
        <access lane="-548786524#1_0" pos="1.02" length="75.33" friendlyPos="1"/>
        <access lane="24633195#1_0" pos="401.59" length="21.64" friendlyPos="1"/>
        <access lane="548786517#0_0" pos="0.00" length="80.56" friendlyPos="1"/>
        <access lane="548786524#1_0" pos="132.29" length="80.13" friendlyPos="1"/>
        <access lane="576784122#3_0" pos="80.59" length="3.04" friendlyPos="1"/>
    </busStop>
    <busStop id="-8997807033" name="万安桥" lane="-795843975#4_0" startPos="891.61" endPos="1055.06" friendlyPos="true">
        <access lane="-548786524#1_0" pos="0.00" length="81.36" friendlyPos="1"/>
        <access lane="24633195#1_0" pos="402.00" length="6.91" friendlyPos="1"/>
        <access lane="548786524#1_0" pos="133.31" length="85.90" friendlyPos="1"/>
        <access lane="576784122#3_0" pos="80.46" length="25.51" friendlyPos="1"/>
        <access lane="576784122#4_0" pos="0.00" length="88.67" friendlyPos="1"/>
    </busStop>
    <busStop id="-9078951299" name="江河汇" lane="-981533307#0_0" startPos="826.13" endPos="1026.13" friendlyPos="true">
        <access lane="-184451514_0" pos="328.97" length="239.33" friendlyPos="1"/>
        <access lane="184451514_0" pos="28.72" length="244.13" friendlyPos="1"/>
        <access lane="553662487#0_0" pos="433.32" length="49.85" friendlyPos="1"/>
        <access lane="593992385#16_0" pos="302.73" length="257.70" friendlyPos="1"/>
        <access lane="593992385#17_0" pos="156.23" length="20.65" friendlyPos="1"/>
    </busStop>
    <busStop id="-9081782493" name="观音塘" lane="-981952490#1_0" startPos="0.00" endPos="145.56" friendlyPos="true">
        <access lane="-582098751#0_0" pos="153.26" length="62.38" friendlyPos="1"/>
        <access lane="582098751#0_0" pos="0.00" length="58.59" friendlyPos="1"/>
        <access lane="587820063#10_0" pos="0.00" length="65.81" friendlyPos="1"/>
        <access lane="587820063#8_0" pos="105.93" length="21.81" friendlyPos="1"/>
        <access lane="587820068#1_0" pos="129.80" length="7.77" friendlyPos="1"/>
    </busStop>
    <busStop id="-9083466376" name="钱江路" lane="-981533307#1_0" startPos="1102.06" endPos="1297.98" friendlyPos="true">
        <access lane="330460399#2_0" pos="48.50" length="225.12" friendlyPos="1"/>
        <access lane="330460399#4_0" pos="0.00" length="231.37" friendlyPos="1"/>
        <access lane="553662487#2_0" pos="18.66" length="241.32" friendlyPos="1"/>
        <access lane="553662487#3_0" pos="144.03" length="13.78" friendlyPos="1"/>
        <access lane="593992385#13_0" pos="211.52" length="14.66" friendlyPos="1"/>
    </busStop>
    <busStop id="-9083466377" name="新业路" lane="-981533307#1_0" startPos="349.23" endPos="549.23" friendlyPos="true">
        <access lane="384668302_0" pos="641.95" length="56.83" friendlyPos="1"/>
        <access lane="384668303_0" pos="431.04" length="44.32" friendlyPos="1"/>
        <access lane="384668310_0" pos="137.43" length="69.37" friendlyPos="1"/>
        <access lane="553662487#9_0" pos="106.81" length="34.41" friendlyPos="1"/>
        <access lane="593992385#8_0" pos="111.46" length="57.16" friendlyPos="1"/>
    </busStop>
    <busStop id="183481186" name="地铁钱江路站" lane="572782829#2_0" startPos="56.82" endPos="71.82" friendlyPos="true" lines="298"/>
    <busStop id="2933008042" name="城站" lane="795843978#0_0" startPos="4275.06" endPos="4475.06" friendlyPos="true" lines="1">
        <access lane="328906104#0_0" pos="1.36" length="19.62" friendlyPos="1"/>
        <access lane="4362905#0_0" pos="0.00" length="37.78" friendlyPos="1"/>
        <access lane="972181383_0" pos="0.00" length="35.14" friendlyPos="1"/>
        <access lane="972181386_0" pos="23.44" length="25.87" friendlyPos="1"/>
        <access lane="972181387_0" pos="5.19" length="7.97" friendlyPos="1"/>
    </busStop>
    <busStop id="2933008045" name="龙翔桥" lane="795843978#0_0" startPos="1775.82" endPos="1975.82" friendlyPos="true" lines="1"/>
    <busStop id="2933008082" name="婺江路" lane="795843978#0_0" startPos="5581.69" endPos="5781.69" friendlyPos="true" lines="1">
        <access lane="982138089_0" pos="126.11" length="9.08" friendlyPos="1"/>
        <access lane="982138099#0_0" pos="44.39" length="7.14" friendlyPos="1"/>
        <access lane="982138099#1_0" pos="0.00" length="0.43" friendlyPos="1"/>
        <access lane="982138101#0_0" pos="19.06" length="8.03" friendlyPos="1"/>
        <access lane="982138109_0" pos="0.00" length="5.06" friendlyPos="1"/>
    </busStop>
    <busStop id="3110732875" name="联庄" lane="326080276#3_0" startPos="9684.92" endPos="9884.92" friendlyPos="true" lines="4"/>
    <busStop id="3110732918" name="城星路" lane="326080276#3_0" startPos="730.19" endPos="930.19" friendlyPos="true" lines="4">
        <access lane="4880748#1_0" pos="82.72" length="32.05" friendlyPos="1"/>
        <access lane="581132506#0_0" pos="17.96" length="117.27" friendlyPos="1"/>
        <access lane="581132506#1_0" pos="0.00" length="118.22" friendlyPos="1"/>
        <access lane="587820064#3_0" pos="105.08" length="7.28" friendlyPos="1"/>
        <access lane="812707070#2_0" pos="118.71" length="21.51" friendlyPos="1"/>
    </busStop>
    <busStop id="3110733032" name="钱江路" lane="795265321_0" startPos="2723.40" endPos="2923.40" friendlyPos="true" lines="4">
        <access lane="326085079_0" pos="274.36" length="124.72" friendlyPos="1"/>
        <access lane="329618112#0_0" pos="12.90" length="123.17" friendlyPos="1"/>
        <access lane="330460399#1_0" pos="150.53" length="99.87" friendlyPos="1"/>
        <access lane="330460399#2_0" pos="0.00" length="129.46" friendlyPos="1"/>
        <access lane="553240094_0" pos="0.00" length="136.67" friendlyPos="1"/>
    </busStop>
    <busStop id="31564996" name="地铁钱江路站" lane="330460399#1_0" startPos="82.80" endPos="97.80" friendlyPos="true" lines="298"/>
    <busStop id="3327052786" name="钱江路" lane="320835563#8_0" startPos="0.00" endPos="142.91" friendlyPos="true" lines="2">
        <access lane="154262322#1_0" pos="526.63" length="98.89" friendlyPos="1"/>
        <access lane="326085079_0" pos="274.36" length="83.31" friendlyPos="1"/>
        <access lane="329618112#0_0" pos="12.33" length="81.18" friendlyPos="1"/>
        <access lane="329618115_0" pos="0.00" length="100.71" friendlyPos="1"/>
        <access lane="330460399#1_0" pos="149.33" length="57.91" friendlyPos="1"/>
    </busStop>
    <busStop id="3866674833" name="浙医一院" lane="572777352#3_0" startPos="30.16" endPos="45.16" friendlyPos="true" lines="1001"/>
    <busStop id="4319744352" lane="433057480#3_0" startPos="232.66" endPos="432.66" friendlyPos="true">
        <access lane="-572777364#4_0" pos="35.85" length="142.13" friendlyPos="1"/>
        <access lane="-572777364#8_0" pos="407.53" length="154.85" friendlyPos="1"/>
        <access lane="518484702_0" pos="986.40" length="118.34" friendlyPos="1"/>
        <access lane="572777364#3_0" pos="180.40" length="137.33" friendlyPos="1"/>
        <access lane="572777364#5_0" pos="0.00" length="150.46" friendlyPos="1"/>
    </busStop>
    <busStop id="4319744354" lane="779842477#2_0" startPos="182.62" endPos="382.62" friendlyPos="true">
        <access lane="355902257_0" pos="91.64" length="157.86" friendlyPos="1"/>
        <access lane="355902263#1_0" pos="177.97" length="118.92" friendlyPos="1"/>
        <access lane="355902263#3_0" pos="83.05" length="160.02" friendlyPos="1"/>
        <access lane="571374297_0" pos="105.62" length="140.70" friendlyPos="1"/>
        <access lane="972181392_0" pos="0.00" length="32.25" friendlyPos="1"/>
    </busStop>
    <busStop id="4319744355" lane="433057476#1_0" startPos="275.90" endPos="475.90" friendlyPos="true">
        <access lane="-572777364#4_0" pos="37.39" length="168.80" friendlyPos="1"/>
        <access lane="518484702_0" pos="986.40" length="141.61" friendlyPos="1"/>
        <access lane="572777364#3_0" pos="178.86" length="164.00" friendlyPos="1"/>
        <access lane="572777364#5_0" pos="0.00" length="175.97" friendlyPos="1"/>
        <access lane="972181392_0" pos="0.00" length="177.82" friendlyPos="1"/>
    </busStop>
    <busStop id="4771034252" name="市民中心" lane="326080276#3_0" startPos="55.05" endPos="255.05" friendlyPos="true" lines="4">
        <access lane="336821424#23_0" pos="317.25" length="33.48" friendlyPos="1"/>
        <access lane="587820062_0" pos="96.71" length="3.87" friendlyPos="1"/>
        <access lane="984657046#1_0" pos="27.54" length="1.78" friendlyPos="1"/>
        <access lane="984657052#4_0" pos="66.24" length="29.72" friendlyPos="1"/>
        <access lane="984657052#5_0" pos="8.56" length="37.91" friendlyPos="1"/>
    </busStop>
    <busStop id="4877718158" name="人民广场" lane="320835563#0_0" startPos="6436.96" endPos="6636.96" friendlyPos="true" lines="2"/>
    <busStop id="5021644862" name="吴山广场" lane="889976775#1_0" startPos="98.86" endPos="298.86" friendlyPos="true" lines="7"/>
    <busStop id="5021644871" name="莫邪塘" lane="889976775#1_0" startPos="2569.12" endPos="2769.12" friendlyPos="true">
        <access lane="-1029223252_0" pos="154.78" length="93.66" friendlyPos="1"/>
        <access lane="1029223252_0" pos="185.40" length="88.86" friendlyPos="1"/>
        <access lane="1029223256_0" pos="0.00" length="230.66" friendlyPos="1"/>
        <access lane="513221209#0_0" pos="0.00" length="234.99" friendlyPos="1"/>
        <access lane="660655511#4_0" pos="370.60" length="233.05" friendlyPos="1"/>
    </busStop>
    <busStop id="5022489946" name="观音塘" lane="889976775#1_0" startPos="4203.61" endPos="4403.61" friendlyPos="true" lines="7">
        <access lane="-582098751#0_0" pos="153.26" length="68.31" friendlyPos="1"/>
        <access lane="582098751#0_0" pos="0.00" length="66.31" friendlyPos="1"/>
        <access lane="587820063#10_0" pos="0.00" length="66.36" friendlyPos="1"/>
        <access lane="587820063#8_0" pos="116.88" length="48.07" friendlyPos="1"/>
        <access lane="587820068#1_0" pos="118.38" length="18.04" friendlyPos="1"/>
    </busStop>
    <busStop id="5034020877" name="葵巷" lane="4347657#1_0" startPos="33.22" endPos="48.22" friendlyPos="true" lines="商务2号线"/>
    <busStop id="5292015741" name="葵巷" lane="331538598#0_0" startPos="25.25" endPos="40.25" friendlyPos="true" lines="商务2号线"/>
    <busStop id="5392913693" name="近江" lane="326080276#3_0" startPos="2024.55" endPos="2224.55" friendlyPos="true" lines="4">
        <access lane="864098260#0_0" pos="40.75" length="19.12" friendlyPos="1"/>
        <access lane="864098260#1_0" pos="0.00" length="31.54" friendlyPos="1"/>
    </busStop>
    <busStop id="5441693215" name="凤起路" lane="795843978#0_0" startPos="848.05" endPos="1048.05" friendlyPos="true" lines="1"/>
    <busStop id="5491465618" name="香榭商务大厦" lane="24647852#2_0" startPos="40.19" endPos="55.19" friendlyPos="true" lines="151"/>
    <busStop id="5491465619" name="香榭商务大厦" lane="24647852#1_0" startPos="21.97" endPos="36.97" friendlyPos="true" lines="151"/>
    <busStop id="5491465841" name="城站火车站" lane="4575823#2_0" startPos="138.58" endPos="150.14" friendlyPos="true" lines="商务2号线区间"/>
    <busStop id="5498653455" name="姚园寺巷" lane="691943459#6_0" startPos="186.09" endPos="201.09" friendlyPos="true" lines="151"/>
    <busStop id="5498653455@8182991" name="姚园寺巷" lane="513971947#0_0" startPos="42.24" endPos="57.24" friendlyPos="true" lines="92"/>
    <busStop id="5498653456" name="姚园寺巷" lane="513971947#0_0" startPos="137.96" endPos="152.96" friendlyPos="true" lines="151 92"/>
    <busStop id="5498653460" name="望江门" lane="513971947#4_0" startPos="34.16" endPos="49.16" friendlyPos="true" lines="151 92"/>
    <busStop id="5502521691" name="大学路北口" lane="582807211#5_0" startPos="65.17" endPos="80.17" friendlyPos="true" lines="1001"/>
    <busStop id="5502521693" name="省青春医院" lane="572777359#0_0" startPos="118.01" endPos="133.01" friendlyPos="true" lines="1001"/>
    <busStop id="5502521694" name="省青春医院" lane="553678636#2_0" startPos="160.03" endPos="175.03" friendlyPos="true" lines="1001"/>
    <busStop id="5502521708" name="总管塘" lane="330460595#3_0" startPos="78.96" endPos="93.96" friendlyPos="true" lines="商务2号线"/>
    <busStop id="5502521708@8281325" name="总管塘" lane="330460597#1_0" startPos="20.82" endPos="35.82" friendlyPos="true" lines="商务2号线区间"/>
    <busStop id="5502521709" name="总管塘" lane="330460597#2_0" startPos="36.50" endPos="51.50" friendlyPos="true" lines="商务2号线 商务2号线区间"/>
    <busStop id="5502582846" name="庆春广场东" lane="572782810_0" startPos="45.95" endPos="60.95" friendlyPos="true" lines="298"/>
    <busStop id="5531100996" name="章家桥" lane="572345281#0_0" startPos="186.80" endPos="201.80" friendlyPos="true" lines="92"/>
    <busStop id="5531100997" name="章家桥" lane="576784110#1_0" startPos="42.91" endPos="57.91" friendlyPos="true" lines="92"/>
    <busStop id="5572840146" name="郭东园巷" lane="24647850#3_0" startPos="177.72" endPos="192.72" friendlyPos="true" lines="1002"/>
    <busStop id="5604158764" name="近江村" lane="61851483#4_0" startPos="0.00" endPos="9.61" friendlyPos="true" lines="商务2号线"/>
    <busStop id="5604158764@8281325" name="近江村" lane="581139441#6_0" startPos="81.11" endPos="96.11" friendlyPos="true" lines="商务2号线区间"/>
    <busStop id="5604158765" name="近江村" lane="581139441#5_0" startPos="149.30" endPos="164.30" friendlyPos="true" lines="商务2号线区间"/>